Circuit: * C:\Users\ljoire\OneDrive - Groupe SEB\Bureau\ESME_A2S\projet\Simulation\AOP.asc

Direct Newton iteration for .op point succeeded.

Date: Mon Dec 18 13:56:23 2023
Total elapsed time: 0.327 seconds.

tnom = 27
temp = 27
method = modified trap
totiter = 2114
traniter = 2104
tranpoints = 1053
accept = 1053
rejected = 0
matrix size = 87
fillins = 41
solver = Normal
Thread vector: 24.4/12.1[4] 3.9/2.1[4] 26.4/17.0[4] 1.1/7.8[1]  2592/500
Matrix Compiler1: 3.63 KB object code size  5.9/3.1/[1.3]
Matrix Compiler2: 6.19 KB object code size  4.1/7.7/[1.6]

