Circuit: * C:\Users\ljoire\OneDrive - Groupe SEB\Bureau\ESME_A2S\projet\Simulation\AOP.asc

Direct Newton iteration for .op point succeeded.

Date: Tue Dec 12 17:27:52 2023
Total elapsed time: 0.301 seconds.

tnom = 27
temp = 27
method = modified trap
totiter = 2114
traniter = 2104
tranpoints = 1053
accept = 1053
rejected = 0
matrix size = 87
fillins = 41
solver = Normal
Thread vector: 33.0/19.7[6] 9.4/4.8[6] 15.3/10.2[6] 1.0/2.9[1]  2592/500
Matrix Compiler1: 3.63 KB object code size  5.5/3.1/[1.2]
Matrix Compiler2: 6.19 KB object code size  10.2/5.4/[1.5]

