Circuit: * C:\Users\ljoire\OneDrive - Groupe SEB\Bureau\ESME_A2S\projet\AOP.asc

Direct Newton iteration for .op point succeeded.

Date: Thu Dec 07 17:31:47 2023
Total elapsed time: 0.254 seconds.

tnom = 27
temp = 27
method = modified trap
totiter = 2114
traniter = 2104
tranpoints = 1053
accept = 1053
rejected = 0
matrix size = 87
fillins = 41
solver = Normal
Thread vector: 44.1/19.3[6] 10.1/6.8[6] 11.2/8.0[6] 1.3/6.0[1]  2592/500
Matrix Compiler1: 3.63 KB object code size  4.7/3.1/[1.3]
Matrix Compiler2: 6.19 KB object code size  3.1/6.9/[2.3]

