Circuit: * C:\Users\ljoire\OneDrive - Groupe SEB\Bureau\ESME_A2S\projet\Draft2.asc

