Circuit: * C:\Users\ljoire\OneDrive - Groupe SEB\Bureau\ESME_A2S\projet\Draft1.asc

WARNING: Less than two connections to node +15.  This node is used by V1.

Date: Thu Dec 14 13:51:23 2023
Total elapsed time: 0.177 seconds.

tnom = 27
temp = 27
method = trap
totiter = 0
traniter = 0
tranpoints = 0
accept = 0
rejected = 0
matrix size = 6
fillins = 0
solver = Normal

